  31
        -52.30695747
 C          1.7226922888       -3.1385026566        0.6100547733
 C          1.1957055247       -1.8222029183        1.1027780481
 O          0.2203888089       -1.7228542231        1.8517943402
 N          1.8627946784       -0.7469953709        0.6618007719
 C          1.5085672127        0.6213744833        0.9881634923
 C          0.3029069459        1.0443883222        0.1270841490
 N         -0.8468683836        0.4777200793        0.5292596090
 C         -1.9992118575        0.4286625543       -0.3398091838
 C         -3.3079198976        0.8385722117        0.3531741168
 O         -4.3860754646        0.6475686561       -0.1953292318
 C          2.7117405853        1.5351301257        0.7843383841
 S          3.4813335556        1.3196921858       -0.8624552217
 O          0.3894358792        1.8214120745       -0.8140108174
 C         -2.1708571454       -0.9762276942       -0.9211128596
 S         -0.7198786320       -1.5062213437       -1.8866507278
 N         -3.1776535389        1.4073870993        1.5482287899
 H          2.5850078164       -0.8505049114       -0.0422802646
 H          1.2020587149        0.6492265614        2.0416118847
 H          3.4964537048        1.3006637086        1.5007423907
 H          2.4160694036        2.5777202044        0.8843877619
 H          2.4187787195        1.7265858366       -1.5456815519
 H         -0.7682150854       -0.2704959664        1.2229265483
 H         -1.8240800874        1.1485768949       -1.1512121512
 H         -3.0609262743       -1.0220494598       -1.5456014975
 H         -2.2548454892       -1.7059517762       -0.1145816215
 H         -0.8791809535       -0.6702448248       -2.9047162647
 H         -4.0035998479        1.7100523156        2.0404351229
 H         -2.2678152551        1.5592267969        1.9506221904
 H          1.4277529754       -3.2600905319       -0.4311415791
 H          2.8055022495       -3.1720207798        0.6743161806
 H          1.2877349833       -3.9441473641        1.1937312411
