  31
        -52.30695773
 C          1.7224450309        3.1379438999       -0.6142997724
 C          1.1956874785        1.8207258606       -1.1048273465
 O          0.2202119127        1.7198989758       -1.8534092333
 N          1.8630644170        0.7463379301       -0.6622459770
 C          1.5086569253       -0.6225092334       -0.9864572380
 C          0.3034173361       -1.0437581524       -0.1239394570
 N         -0.8468031079       -0.4794860632       -0.5283458381
 C         -1.9995085376       -0.4280145268        0.3401440548
 C         -3.3075113498       -0.8411444204       -0.3524278966
 N         -3.1752337443       -1.4191516549       -1.5428567642
 C          2.7118525225       -1.5361366630       -0.7823350098
 S          3.4830836395       -1.3186573304        0.8634365708
 O          0.3905278950       -1.8173200841        0.8199245213
 C         -2.1719703525        0.9786498781        0.9167048282
 S         -0.7227778125        1.5111528997        1.8836351198
 O         -4.3865889197       -0.6446653511        0.1922877115
 H          2.5855920941        0.8510309887        0.0413188826
 H          1.2013808262       -0.6516856192       -2.0396387349
 H          3.4959262664       -1.3027338180       -1.4997898175
 H          2.4160225689       -2.5788423636       -0.8807345003
 H          2.4205859214       -1.7232766791        1.5481172710
 H         -0.7683997699        0.2667049649       -1.2241863015
 H         -1.8244472015       -1.1452332251        1.1539553247
 H         -3.0633192651        1.0266828184        1.5391899849
 H         -2.2540278184        1.7059094433        0.1077494278
 H         -0.8853692483        0.6793893717        2.9046397058
 H         -4.0002791061       -1.7251516987       -2.0345082634
 H         -2.2645840051       -1.5750736349       -1.9418741001
 H          2.8052675947        3.1714489151       -0.6784334892
 H          1.2875168680        3.9425429549       -1.1994466915
 H          1.4273308969        3.2613281149        0.4266385917
